Info: SIMULATION PARAMETERS:
Info: TIMESTEP               100
Info: NUMBER OF STEPS        0
Info: STEPS PER CYCLE        20
Info: PERIODIC CELL BASIS 1  1000 0 0
Info: PERIODIC CELL BASIS 2  0 110 0
Info: PERIODIC CELL BASIS 3  0 0 500
Info: PERIODIC CELL CENTER   225 50 0
Info: WRAPPING ALL CLUSTERS AROUND PERIODIC BOUNDARIES ON OUTPUT.
Info: FIRST LDB TIMESTEP     100
Info: LAST LDB TIMESTEP     -1
Info: HOM BACKGROUND SCALING 1
Info: MIN ATOMS PER PATCH    40
Info: INITIAL TEMPERATURE    310
Info: CENTER OF MASS MOVING INITIALLY? NO
Info: DIELECTRIC             1
Info: EXCLUDE                ONETWO
Info: DCD FILENAME           output/sim.dcd
Info: DCD FREQUENCY          10000
Info: DCD FIRST STEP         10000
Info: DCD FILE WILL CONTAIN UNIT CELL DATA
Info: XST FILENAME           output/sim.xst
Info: XST FREQUENCY          10000
Info: NO VELOCITY DCD OUTPUT
Info: NO FORCE DCD OUTPUT
Info: OUTPUT FILENAME        output/sim
Info: BINARY OUTPUT FILES WILL BE USED
Info: RESTART FILENAME       output/sim.restart
Info: RESTART FREQUENCY      10000
Info: BINARY RESTART FILES WILL BE USED
Info: SWITCHING ACTIVE
Info: SWITCHING ON           20
Info: SWITCHING OFF          35
Info: PAIRLIST DISTANCE      100
Info: PAIRLIST SHRINK RATE   0.01
Info: PAIRLIST GROW RATE     0.01
Info: PAIRLIST TRIGGER       0.3
Info: PAIRLISTS PER CYCLE    2
Info: PAIRLISTS ENABLED
Info: MARGIN                 0
Info: PATCH DIMENSION        100
Info: ENERGY OUTPUT STEPS    1000
Info: CROSSTERM ENERGY INCLUDED IN DIHEDRAL
Info: TIMING OUTPUT STEPS    10000
Info: PRESSURE OUTPUT STEPS  1000
Info: LANGEVIN DYNAMICS ACTIVE
Info: LANGEVIN TEMPERATURE   310
Info: LANGEVIN USING BBK INTEGRATOR
Info: LANGEVIN DAMPING COEFFICIENT IS 2 INVERSE PS
Info: LANGEVIN DYNAMICS NOT APPLIED TO HYDROGENS
Info: USING VERLET I (r-RESPA) MTS SCHEME.
Info: C1 SPLITTING OF LONG RANGE ELECTROSTATICS
Info: PLACING ATOMS IN PATCHES BY POSITION
Info: RANDOM NUMBER SEED     1719416227
Info: USE HYDROGEN BONDS?    NO
Info: COORDINATE PDB         input/6bar.pdb
Info: STRUCTURE FILE         input/6bar.psf
Info: PARAMETER file: CHARMM format!
Info: PARAMETERS             input/scaled2.par
Info: PARAMETERS             input/lipid-ion.par
Info: USING ARITHMETIC MEAN TO COMBINE L-J SIGMA PARAMETERS
Info: SUMMARY OF PARAMETERS:
Info: 46 BONDS
Info: 128 ANGLES
Info: 1 DIHEDRAL
Info: 0 IMPROPER
Info: 0 CROSSTERM
Info: 30 VDW
Info: 0 VDW_PAIRS
Info: 0 NBTHOLE_PAIRS
Info: STRUCTURE SUMMARY:
Info: 1826 ATOMS
Info: 1194 BONDS
Info: 1536 ANGLES
Info: 0 DIHEDRALS
Info: 0 IMPROPERS
Info: 0 CROSSTERMS
Info: 0 EXCLUSIONS
Info: 5478 DEGREES OF FREEDOM
Info: 1826 HYDROGEN GROUPS
Info: 1 ATOMS IN LARGEST HYDROGEN GROUP
Info: 1826 MIGRATION GROUPS
Info: 1 ATOMS IN LARGEST MIGRATION GROUP
Info: TOTAL MASS = 1.68271e+06 amu
Info: TOTAL CHARGE = 1 e
Info: MASS DENSITY = 0.050805 g/cm^3
Info: ATOM DENSITY = 3.32e-05 atoms/A^3
Info: ADDED 1194 IMPLICIT EXCLUSIONS
Info: NONBONDED TABLE R-SQUARED SPACING: 0.0625
Info: NONBONDED TABLE SIZE: 961 POINTS
Info: REMOVING COM VELOCITY -0.0152568 -0.00341966 0.0103862
TCL: Minimizing for 1000 steps
ETITLE: TS BOND ANGLE DIHED IMPRP ELECT VDW BOUNDARY MISC KINETIC TOTAL TEMP POTENTIAL TOTAL3 TEMPAVG PRESSURE GPRESSURE VOLUME PRESSAVG GPRESSAVG
ENERGY: 0 411.6722 585.3133 0.0000 0.0000 11282.1927 136136520.4280 0.0000 0.0000 0.0000 136148799.6062 0.0000 136148799.6062 136148799.6062 0.0000 688418.9966 688418.9966 55000000.0000 688418.9966 688418.9966
ENERGY: 200 730.4794 512.0297 0.0000 0.0000 -10841.3044 -22372.9474 0.0000 0.0000 0.0000 -31971.7427 0.0000 -31971.7427 -31971.7427 0.0000 65.9640 65.9640 55000000.0000 65.9640 65.9640
ENERGY: 400 1601.3876 488.2689 0.0000 0.0000 -24499.3444 -31032.8836 0.0000 0.0000 0.0000 -53442.5715 0.0000 -53442.5715 -53442.5715 0.0000 -13.5098 -13.5098 55000000.0000 -13.5098 -13.5098
ENERGY: 600 1856.2664 444.4279 0.0000 0.0000 -30619.3394 -31567.4344 0.0000 0.0000 0.0000 -59886.0795 0.0000 -59886.0795 -59886.0795 0.0000 -16.8459 -16.8459 55000000.0000 -16.8459 -16.8459
ENERGY: 800 1830.9518 405.4084 0.0000 0.0000 -33663.7252 -32003.3032 0.0000 0.0000 0.0000 -63430.6683 0.0000 -63430.6683 -63430.6683 0.0000 -17.1710 -17.1710 55000000.0000 -17.1710 -17.1710
ENERGY: 1000 1827.9068 410.6471 0.0000 0.0000 -35994.6646 -32373.6015 0.0000 0.0000 0.0000 -66129.7122 0.0000 -66129.7122 -66129.7122 0.0000 -16.4073 -16.4073 55000000.0000 -16.4073 -16.4073
TCL: Running for 2000000 steps
ETITLE: TS BOND ANGLE DIHED IMPRP ELECT VDW BOUNDARY MISC KINETIC TOTAL TEMP POTENTIAL TOTAL3 TEMPAVG PRESSURE GPRESSURE VOLUME PRESSAVG GPRESSAVG
ENERGY: 1000 1827.9068 410.6471 0.0000 0.0000 -35994.6646 -32373.6015 0.0000 0.0000 1685.4604 -64444.2518 309.6613 -66129.7122 -64444.7225 309.6613 -14.9870 -14.9870 55000000.0000 -14.9870 -14.9870
ENERGY: 401000 2511.5042 625.4212 0.0000 0.0000 -55090.5731 -34207.5873 0.0000 0.0000 1720.9518 -84440.2832 316.1819 -86161.2350 -84433.2602 310.0731 -1.4905 -1.4905 55000000.0000 -1.9105 -1.9105
ENERGY: 801000 2583.8815 638.8992 0.0000 0.0000 -56095.1264 -34382.9183 0.0000 0.0000 1669.5201 -85585.7439 306.7327 -87255.2640 -85574.3158 310.3868 -1.6159 -1.6159 55000000.0000 -1.0405 -1.0405
ENERGY: 1201000 2709.1241 586.1664 0.0000 0.0000 -57323.9488 -34349.0155 0.0000 0.0000 1693.1598 -86684.5141 311.0759 -88377.6739 -86687.8069 310.7696 -0.9490 -0.9490 55000000.0000 -1.4914 -1.4914
ENERGY: 1601000 2700.4800 591.1263 0.0000 0.0000 -58492.6398 -34424.8305 0.0000 0.0000 1689.1700 -87936.6940 310.3428 -89625.8640 -87930.7963 309.5373 -1.9528 -1.9528 55000000.0000 -1.8685 -1.8685
ENERGY: 2001000 2940.3647 601.2410 0.0000 0.0000 -59485.1908 -34605.3608 0.0000 0.0000 1702.1189 -88846.8270 312.7219 -90548.9459 -88851.0647 310.5673 -0.9621 -0.9621 55000000.0000 -0.9593 -0.9593
