Info: SIMULATION PARAMETERS:
Info: TIMESTEP               50
Info: NUMBER OF STEPS        0
Info: STEPS PER CYCLE        20
Info: PERIODIC CELL BASIS 1  1000 0 0
Info: PERIODIC CELL BASIS 2  0 110 0
Info: PERIODIC CELL BASIS 3  0 0 500
Info: PERIODIC CELL CENTER   225 50 0
Info: WRAPPING ALL CLUSTERS AROUND PERIODIC BOUNDARIES ON OUTPUT.
Info: FIRST LDB TIMESTEP     100
Info: LAST LDB TIMESTEP     -1
Info: HOM BACKGROUND SCALING 1
Info: MIN ATOMS PER PATCH    40
Info: INITIAL TEMPERATURE    310
Info: CENTER OF MASS MOVING INITIALLY? NO
Info: DIELECTRIC             1
Info: EXCLUDE                ONETWO
Info: DCD FILENAME           output/sim.dcd
Info: DCD FREQUENCY          10000
Info: DCD FIRST STEP         10000
Info: DCD FILE WILL CONTAIN UNIT CELL DATA
Info: XST FILENAME           output/sim.xst
Info: XST FREQUENCY          10000
Info: NO VELOCITY DCD OUTPUT
Info: NO FORCE DCD OUTPUT
Info: OUTPUT FILENAME        output/sim
Info: BINARY OUTPUT FILES WILL BE USED
Info: RESTART FILENAME       output/sim.restart
Info: RESTART FREQUENCY      10000
Info: BINARY RESTART FILES WILL BE USED
Info: SWITCHING ACTIVE
Info: SWITCHING ON           20
Info: SWITCHING OFF          35
Info: PAIRLIST DISTANCE      100
Info: PAIRLIST SHRINK RATE   0.01
Info: PAIRLIST GROW RATE     0.01
Info: PAIRLIST TRIGGER       0.3
Info: PAIRLISTS PER CYCLE    2
Info: PAIRLISTS ENABLED
Info: MARGIN                 0
Info: PATCH DIMENSION        100
Info: ENERGY OUTPUT STEPS    1000
Info: CROSSTERM ENERGY INCLUDED IN DIHEDRAL
Info: TIMING OUTPUT STEPS    10000
Info: PRESSURE OUTPUT STEPS  1000
Info: LANGEVIN DYNAMICS ACTIVE
Info: LANGEVIN TEMPERATURE   310
Info: LANGEVIN USING BBK INTEGRATOR
Info: LANGEVIN DAMPING COEFFICIENT IS 2 INVERSE PS
Info: LANGEVIN DYNAMICS NOT APPLIED TO HYDROGENS
Info: USING VERLET I (r-RESPA) MTS SCHEME.
Info: C1 SPLITTING OF LONG RANGE ELECTROSTATICS
Info: PLACING ATOMS IN PATCHES BY POSITION
Info: RANDOM NUMBER SEED     1719405607
Info: USE HYDROGEN BONDS?    NO
Info: COORDINATE PDB         input/6bar.pdb
Info: STRUCTURE FILE         input/6bar.psf
Info: PARAMETER file: CHARMM format!
Info: PARAMETERS             input/scaled2.par
Info: PARAMETERS             input/lipid-ion.par
Info: USING ARITHMETIC MEAN TO COMBINE L-J SIGMA PARAMETERS
Info: SUMMARY OF PARAMETERS:
Info: 46 BONDS
Info: 128 ANGLES
Info: 1 DIHEDRAL
Info: 0 IMPROPER
Info: 0 CROSSTERM
Info: 30 VDW
Info: 0 VDW_PAIRS
Info: 0 NBTHOLE_PAIRS
Info: STRUCTURE SUMMARY:
Info: 1826 ATOMS
Info: 1194 BONDS
Info: 1536 ANGLES
Info: 0 DIHEDRALS
Info: 0 IMPROPERS
Info: 0 CROSSTERMS
Info: 0 EXCLUSIONS
Info: 5478 DEGREES OF FREEDOM
Info: 1826 HYDROGEN GROUPS
Info: 1 ATOMS IN LARGEST HYDROGEN GROUP
Info: 1826 MIGRATION GROUPS
Info: 1 ATOMS IN LARGEST MIGRATION GROUP
Info: TOTAL MASS = 1.68271e+06 amu
Info: TOTAL CHARGE = 1 e
Info: MASS DENSITY = 0.050805 g/cm^3
Info: ATOM DENSITY = 3.32e-05 atoms/A^3
Info: ADDED 1194 IMPLICIT EXCLUSIONS
Info: NONBONDED TABLE R-SQUARED SPACING: 0.0625
Info: NONBONDED TABLE SIZE: 961 POINTS
Info: REMOVING COM VELOCITY 0.0088715 0.00565629 -0.0121046
TCL: Minimizing for 1000 steps
ETITLE: TS BOND ANGLE DIHED IMPRP ELECT VDW BOUNDARY MISC KINETIC TOTAL TEMP POTENTIAL TOTAL3 TEMPAVG PRESSURE GPRESSURE VOLUME PRESSAVG GPRESSAVG
ENERGY: 0 411.6722 585.3133 0.0000 0.0000 11282.1927 136136520.4280 0.0000 0.0000 0.0000 136148799.6062 0.0000 136148799.6062 136148799.6062 0.0000 688418.9966 688418.9966 55000000.0000 688418.9966 688418.9966
ENERGY: 200 730.4794 512.0297 0.0000 0.0000 -10841.3044 -22372.9474 0.0000 0.0000 0.0000 -31971.7427 0.0000 -31971.7427 -31971.7427 0.0000 65.9640 65.9640 55000000.0000 65.9640 65.9640
ENERGY: 400 1601.3876 488.2689 0.0000 0.0000 -24499.3444 -31032.8836 0.0000 0.0000 0.0000 -53442.5715 0.0000 -53442.5715 -53442.5715 0.0000 -13.5098 -13.5098 55000000.0000 -13.5098 -13.5098
ENERGY: 600 1856.2664 444.4279 0.0000 0.0000 -30619.3394 -31567.4344 0.0000 0.0000 0.0000 -59886.0795 0.0000 -59886.0795 -59886.0795 0.0000 -16.8459 -16.8459 55000000.0000 -16.8459 -16.8459
ENERGY: 800 1830.9518 405.4084 0.0000 0.0000 -33663.7252 -32003.3032 0.0000 0.0000 0.0000 -63430.6683 0.0000 -63430.6683 -63430.6683 0.0000 -17.1710 -17.1710 55000000.0000 -17.1710 -17.1710
ENERGY: 1000 1827.9068 410.6471 0.0000 0.0000 -35994.6646 -32373.6015 0.0000 0.0000 0.0000 -66129.7122 0.0000 -66129.7122 -66129.7122 0.0000 -16.4073 -16.4073 55000000.0000 -16.4073 -16.4073
TCL: Running for 50000 steps
ETITLE: TS BOND ANGLE DIHED IMPRP ELECT VDW BOUNDARY MISC KINETIC TOTAL TEMP POTENTIAL TOTAL3 TEMPAVG PRESSURE GPRESSURE VOLUME PRESSAVG GPRESSAVG
ENERGY: 1000 1827.9068 410.6471 0.0000 0.0000 -35994.6646 -32373.6015 0.0000 0.0000 1712.1549 -64417.5573 314.5657 -66129.7122 -64417.6750 314.5657 -14.9648 -14.9648 55000000.0000 -14.9648 -14.9648
ENERGY: 11000 1916.7767 543.6432 0.0000 0.0000 -43481.6914 -33251.7019 0.0000 0.0000 1682.7926 -72590.1809 309.1711 -74272.9734 -72599.5800 309.8278 -3.7480 -3.7480 55000000.0000 -4.0230 -4.0230
ENERGY: 21000 2152.8748 635.2684 0.0000 0.0000 -46313.4655 -33491.7587 0.0000 0.0000 1705.9455 -75311.1355 313.4249 -77017.0810 -75312.0483 310.4671 -3.4378 -3.4378 55000000.0000 -3.4954 -3.4954
ENERGY: 31000 2300.3577 648.7817 0.0000 0.0000 -47228.0209 -33681.5701 0.0000 0.0000 1650.0769 -76310.3747 303.1604 -77960.4515 -76315.7620 309.8042 -3.4632 -3.4632 55000000.0000 -3.0628 -3.0628
ENERGY: 41000 2283.3080 670.5346 0.0000 0.0000 -48581.5836 -33663.8845 0.0000 0.0000 1650.4995 -77641.1260 303.2381 -79291.6255 -77649.2508 311.1306 -2.1685 -2.1685 55000000.0000 -3.0547 -3.0547
ENERGY: 51000 2316.6640 680.5341 0.0000 0.0000 -49479.9706 -33641.2295 0.0000 0.0000 1627.1440 -78496.8581 298.9471 -80124.0021 -78488.3723 310.0487 -2.5973 -2.5973 55000000.0000 -2.8819 -2.8819
